LTspice 24.0.12 for Windows
Circuit: * C:\Users\Surya\Documents\projects\electronics\acousticLevitation\main\Draft1.asc
Start Time: Mon Feb 10 03:35:56 2025
solver = Normal
Maximum thread count: 12
tnom = 27
temp = 27
method = modified trap
WARNING: Less than two connections to node g1.  This node is used by v1.
WARNING: Less than two connections to node g2.  This node is used by v2.
.OP point found by inspection.
Total elapsed time: 0.165 seconds.

