LTspice 24.0.12 for Windows
Circuit: .title KiCad schematic
Start Time: Mon Feb 10 03:18:30 2025
solver = Normal
Maximum thread count: 12
tnom = 27
temp = 27
method = modified trap
WARNING: Node NET-_U1-VCOIN_ is floating.
WARNING: Node NET-_U1-C1_ is floating.
WARNING: Node NET-_U1-C2_ is floating.

WARNING: Less than two connections to node net-_u1-r1_.  This node is used by r1.
WARNING: Less than two connections to node net-_u1-pc1_.  This node is used by r2.
WARNING: Less than two connections to node net-_r5-pad1_.  This node is used by r5.
WARNING: Less than two connections to node net-_u1-c1_.  This node is used by c1.
WARNING: Less than two connections to node net-_u1-c2_.  This node is used by c1.
Direct Newton iteration for .op point succeeded.
Total elapsed time: 0.098 seconds.

